
/*--------------------------------*- C++ -*----------------------------------*\
  =========                 |
  \\      /  F ield         | OpenFOAM: The Open Source CFD Toolbox
   \\    /   O peration     | Website:  https://openfoam.org
    \\  /    A nd           | Version:  7
     \\/     M anipulation  |
\*---------------------------------------------------------------------------*/
FoamFile
{
    version         2;
    format          ascii;
    class           dictionary;
    location        "constant";
    object          chemistryProperties;
}


chemistryType
{
    solver          ode;
    method          pure; // chemistryModel (CCMP2P in OpenFOAM 7)
}

chemistry       on;

log             off;

initialChemicalTimeStep 1e-7;

odeCoeffs
{
    solver          seulex;
    absTol          1e-08;
    relTol          0.1;
}

importantSpecies
{
    CO2             ;
    H2O             ;
    CH4             ;
    O2              ;
}

optimizedODE  true;



// ************************************************************************* //
